LTspice 24.0.12 for Windows
Circuit: * C:\users\evans\Desktop\FBR\Precharge\Sim_Precharge\Precharge.asc
Start Time: Sun Oct 13 12:11:46 2024
solver = Normal
Maximum thread count: 2
tnom = 27
temp = 27
method = modified trap
.OP point found by inspection.
Total elapsed time: 0.226 seconds.

