LTspice 24.1.5 for Windows
Circuit: Z:\home\evans\Desktop\FBR\Precharge\Simulations\Voltage_Shifter.net
Start Time: Fri Apr 18 14:51:41 2025
solver = Normal
Maximum thread count: 2
tnom = 27
temp = 27
method = modified trap
Direct Newton iteration for .op point succeeded.
Total elapsed time: 0.103 seconds.

Files loaded:
Z:\home\evans\Desktop\FBR\Precharge\Simulations\Voltage_Shifter.net

