LTspice 24.1.5 for Windows
Circuit: C:\users\evans\Desktop\FBR\Precharge\Sim_Precharge\Draft3.net
Start Time: Thu Apr 17 23:03:49 2025
solver = Normal
Maximum thread count: 2
tnom = 27
temp = 27
method = modified trap
Direct Newton iteration for .op point succeeded.
Total elapsed time: 0.093 seconds.

Files loaded:
C:\users\evans\Desktop\FBR\Precharge\Sim_Precharge\Draft3.net

