LTspice 24.0.12 for Windows
Circuit: * C:\users\evans\Desktop\FBR\Precharge\Sim_Precharge\Draft2.asc
Start Time: Fri Dec 20 23:41:43 2024
solver = Normal
Maximum thread count: 2
tnom = 27
temp = 27
method = modified trap
Direct Newton iteration for .op point succeeded.
Total elapsed time: 0.118 seconds.

