LTspice 24.0.12 for Windows
Circuit: * C:\users\evans\Desktop\FBR\Precharge\Sim_Precharge\Draft5.asc
Start Time: Tue Dec 31 20:45:50 2024
solver = Normal
Maximum thread count: 2
tnom = 27
temp = 27
method = modified trap
WARNING: Specified period is not longer than the sum of Trise, Tfall, and Ton for v1.  Increasing period to 5.002
.OP point found by inspection.
Total elapsed time: 0.136 seconds.

