LTspice 24.0.12 for Windows
Circuit: * C:\users\evans\Desktop\FBR\Precharge\Sim_Precharge\Draft3.asc
Start Time: Mon Jan  6 14:21:40 2025
solver = Normal
Maximum thread count: 2
tnom = 27
temp = 27
method = modified trap
Direct Newton iteration for .op point succeeded.
Semiconductor Device Operating Points:
                        --- Diodes ---
Name:      d1
Model:      d
Id:      1.15e-03
Vd:      6.59e-01
Req:     2.26e+01
CAP:     0.00e+00


Total elapsed time: 0.151 seconds.

