LTspice 24.0.12 for Windows
Circuit: * C:\users\evans\Desktop\FBR\Precharge\Sim_Precharge\Draft3.asc
Start Time: Mon Dec 30 17:33:41 2024
solver = Normal
Maximum thread count: 2
tnom = 27
temp = 27
method = modified trap
Direct Newton iteration for .op point succeeded.
Total elapsed time: 0.117 seconds.

