LTspice 24.0.12 for Windows
Circuit: * C:\users\evans\Desktop\FBR\Precharge\Sim_Precharge\Draft4.asc
Start Time: Tue Dec 31 17:12:50 2024
solver = Normal
Maximum thread count: 2
tnom = 27
temp = 27
method = modified trap
.OP point found by inspection.
Total elapsed time: 0.177 seconds.

