LTspice 24.1.5 for Windows
Circuit: C:\users\evans\Desktop\FBR\Precharge\Sim_Precharge\Draft3.net
Start Time: Tue Apr 15 15:28:16 2025
solver = Normal
Maximum thread count: 2
tnom = 27
temp = 27
method = modified trap
WARNING: Node nc_02 is floating.

Direct Newton iteration for .op point succeeded.
Total elapsed time: 0.194 seconds.

Files loaded:
C:\users\evans\Desktop\FBR\Precharge\Sim_Precharge\Draft3.net
C:\users\evans\AppData\Local\LTspice\lib\sub\4N27.sub

